<?xml version="1.0" encoding="UTF-8"?>

<!-- generated on 2025-03-15 21:24:47 by Eclipse SUMO sumo Version 1.22.0
-->

<sumoConfiguration xmlns:xsi="http://www.w3.org/2001/XMLSchema-instance" xsi:noNamespaceSchemaLocation="http://sumo.dlr.de/xsd/sumoConfiguration.xsd">

    <input>
        <net-file value="12nodes.net.xml"/>
        <additional-files value="12nodes.taz.xml"/>
    </input>

    <time>
        <begin value="0"/>
        <end value="691200"/>
    </time>

</sumoConfiguration>
